Version 4
SHEET 1 964 680
WIRE -2320 -1104 -2368 -1104
WIRE -2192 -1104 -2320 -1104
WIRE -1968 -1104 -2192 -1104
WIRE -1920 -1104 -1968 -1104
WIRE -1792 -1104 -1840 -1104
WIRE -1776 -1104 -1792 -1104
WIRE -1680 -1104 -1712 -1104
WIRE -1600 -1104 -1680 -1104
WIRE -1456 -1104 -1600 -1104
WIRE -2320 -1024 -2320 -1104
WIRE -1680 -1024 -1680 -1104
WIRE -1968 -1008 -1968 -1104
WIRE -2192 -944 -2192 -1104
WIRE -2112 -944 -2192 -944
WIRE -1792 -944 -1792 -1104
WIRE -1792 -944 -1824 -944
WIRE -2448 -896 -2448 -960
WIRE -2320 -864 -2320 -960
WIRE -2256 -864 -2320 -864
WIRE -2112 -864 -2192 -864
WIRE -1680 -864 -1680 -944
WIRE -1680 -864 -1824 -864
WIRE -1600 -864 -1600 -1104
WIRE -2112 -784 -2176 -784
WIRE -1728 -784 -1824 -784
WIRE -2448 -752 -2448 -816
WIRE -1728 -752 -1728 -784
WIRE -2176 -736 -2176 -784
WIRE -1728 -656 -1728 -672
WIRE -2320 -560 -2320 -864
WIRE -2176 -560 -2176 -656
WIRE -2176 -560 -2320 -560
WIRE -1968 -560 -1968 -720
WIRE -1968 -560 -2176 -560
WIRE -1856 -560 -1968 -560
WIRE -1728 -560 -1728 -592
WIRE -1728 -560 -1856 -560
WIRE -1600 -560 -1600 -800
WIRE -1600 -560 -1728 -560
WIRE -1856 -512 -1856 -560
FLAG -2448 -752 0
FLAG -2448 -960 +Vin3V3
FLAG -2368 -1104 +Vin3V3
FLAG -1856 -512 0
FLAG -1456 -1104 Vout
SYMBOL PowerProducts\\LT3580 -1968 -864 R0
SYMATTR InstName U1
SYMBOL voltage -2448 -912 R0
WINDOW 123 0 0 Left 0
WINDOW 39 0 0 Left 0
SYMATTR InstName V1
SYMATTR Value 3V3
SYMBOL cap -2192 -880 R90
WINDOW 0 0 32 VBottom 2
WINDOW 3 32 32 VTop 2
SYMATTR InstName C1
SYMATTR Value 0.1µF
SYMBOL cap -2336 -1024 R0
SYMATTR InstName C2
SYMATTR Value 2.2µF
SYMBOL cap -1744 -656 R0
SYMATTR InstName C3
SYMATTR Value 1nF
SYMBOL cap -1616 -864 R0
SYMATTR InstName C4
SYMATTR Value 10µF
SYMBOL ind -1936 -1088 R270
WINDOW 0 32 56 VTop 2
WINDOW 3 5 56 VBottom 2
SYMATTR InstName L1
SYMATTR Value 4.2µH
SYMBOL res -2160 -640 R180
WINDOW 0 36 76 Left 2
WINDOW 3 36 40 Left 2
SYMATTR InstName R2
SYMATTR Value 75k
SYMBOL res -1696 -1040 R0
SYMATTR InstName R1
SYMATTR Value 130k
SYMBOL res -1744 -768 R0
SYMATTR InstName R3
SYMATTR Value 10k
SYMBOL schottky -1776 -1088 R270
WINDOW 0 32 32 VTop 2
WINDOW 3 0 32 VBottom 2
SYMATTR InstName D1
TEXT -2456 -632 Left 2 !.tran 1
